      72
   ABC 9.330 9.330 9.107
 Ti         2.3446828077        2.3446827557        1.4006654958
 Ti         0.0118457618        0.0118457209       -0.1161545611
  O         0.9340092913        3.7570222915        1.5879044996
  O         3.7570222677        0.9340092969        1.5879045306
  O         1.4248065127        1.4248065307        0.0696415055
  O         3.2665488931        3.2665489019        0.0708882679
 Ti         7.0103428320        2.3439225701        1.4006527693
 Ti         4.6770387073        0.0119425099       -0.1172384968
  O         5.5999281213        3.7570388523        1.5883720018
  O         8.4229093632        0.9334291153        1.5874089977
  O         6.0906240774        1.4241995983        0.0693951567
  O         7.9318532542        3.2660120327        0.0706345166
 Ti         2.3439226245        7.0103427852        1.4006527696
 Ti         0.0119425472        4.6770386762       -0.1172384947
  O         0.9334291102        8.4229093935        1.5874089703
  O         3.7570388289        5.5999281350        1.5883720384
  O         1.4241995797        6.0906241034        0.0693951564
  O         3.2660120247        7.9318532687        0.0706345157
 Ti         7.0096957362        7.0096956917        1.4006601303
 Ti         4.6772441045        4.6772440722       -0.1182131350
  O         5.5993722918        8.4229102002        1.5878817551
  O         8.4229101698        5.5993723051        1.5878817863
  O         6.0900307604        6.0900307873        0.0692589314
  O         7.9313081798        7.9313081938        0.0702949354
 Ti         2.3446278637        2.3446278116        4.4361126585
 Ti         0.0118033762        0.0118033378        2.9195916969
  O         0.9339372856        3.7570847855        4.6232461529
  O         3.7570847609        0.9339372922        4.6232461868
  O         1.4248346933        1.4248347130        3.1048434434
  O         3.2664990651        3.2664990703        3.1061291801
 Ti         7.0102791697        2.3438407871        4.4360921999
 Ti         4.6769997242        0.0119069458        2.9185121220
  O         5.5998562241        3.7570823822        4.6236983573
  O         8.4229734169        0.9333352724        4.6227450850
  O         6.0906539307        1.4242213587        3.1045872282
  O         7.9318103821        3.2659702537        3.1058864360
 Ti         2.3438408346        7.0102791249        4.4360921983
 Ti         0.0119069871        4.6769996910        2.9185121209
  O         0.9333352652        8.4229734457        4.6227450534
  O         3.7570823558        5.5998562384        4.6236983938
  O         1.4242213373        6.0906539551        3.1045872304
  O         3.2659702470        7.9318103975        3.1058864371
 Ti         7.0095957818        7.0095957383        4.4360881204
 Ti         4.6772005074        4.6772004684        2.9175346019
  O         5.5992829202        8.4229559891        4.6232048098
  O         8.4229559585        5.5992829352        4.6232048439
  O         6.0900528865        6.0900529107        3.1044404768
  O         7.9312767990        7.9312768141        3.1055533340
 Ti         2.3446610540        2.3446610073        7.4715490655
 Ti         0.0118357796        0.0118357422        5.9550300395
  O         0.9340087772        3.7570630841        7.6586298855
  O         3.7570630603        0.9340087855        7.6586299174
  O         1.4250448929        1.4250449121        6.1401440512
  O         3.2663452001        3.2663452070        6.1415779756
 Ti         7.0102583230        2.3438976538        7.4715352796
 Ti         4.6770196879        0.0119250301        5.9539287917
  O         5.5999062012        3.7570586459        7.6591071729
  O         8.4229633116        0.9333910760        7.6581367457
  O         6.0908513969        1.4244381011        6.1399136667
  O         7.9316539873        3.2657731331        6.1413469262
 Ti         2.3438977031        7.0102582785        7.4715352788
 Ti         0.0119250686        4.6770196552        5.9539287892
  O         0.9333910684        8.4229633392        7.6581367132
  O         3.7570586200        5.5999062138        7.6591072044
  O         1.4244380803        6.0908514209        6.1399136673
  O         3.2657731257        7.9316540026        6.1413469299
 Ti         7.0096082595        7.0096082145        7.4715383433
 Ti         4.6772124481        4.6772124175        5.9529312321
  O         5.5993078419        8.4229426110        7.6586062560
  O         8.4229425812        5.5993078551        7.6586062878
  O         6.0902605268        6.0902605533        6.1397840752
  O         7.9310814556        7.9310814724        6.1410321762
