     128
ABC 10.467947   10.651128   14.393541
 Na         2.5358401718        2.4036541388        0.8872013862
 Na         5.1522372336        0.2590712942        4.4891523870
 Na         5.1528392836        2.9219112737        6.3095399174
 Na         2.5352612987        5.0664886389        2.7076368573
 Alx        0.0022531914        2.9661722586        2.6980461582
 Al         2.6192362909        2.3593866824        4.4987327428
 Al         2.6175648601        5.0222290113        6.2925074119
 Al         0.0005770263        0.3033263659        0.9042714999
  O         4.8590439960        4.6682783839        2.3454468469
  O         2.2420551410        0.6572784870        4.8513352936
  O         2.2406685116        3.3203600510        5.9380787063
  O         4.8576409934        2.0051871214        1.2587247133
  O         1.7370483580        2.8272327014        3.0410387328
  O         1.7327916979        0.1649185988        0.5509667040
  O         4.3497741441        5.1606321700        6.6458167721
  O         4.3540253302        2.4983290734        4.1557233563
 Na         7.7698138344        2.4036542612        0.8872013839
 Na        10.3862109187        0.2590713142        4.4891523599
 Na        10.3868122947        2.9219114388        6.3095397257
 Na         7.7692340573        5.0664888461        2.7076369249
 Al         5.2362268265        2.9661710689        2.6980464701
 Al         7.8532102167        2.3593872046        4.4987321313
 Al         7.8515389805        5.0222302909        6.2925070881
 Al         5.2345506060        0.3033261113        0.9042717544
  O        10.0930173547        4.6682797722        2.3454460621
  O         7.4760295206        0.6572789176        4.8513355008
  O         7.4746435323        3.3203597875        5.9380787806
  O        10.0916151523        2.0051875899        1.2587236153
  O         6.9710214436        2.8272326031        3.0410385533
  O         6.9667653750        0.1649186130        0.5509663744
  O         9.5837489657        5.1606332488        6.6458161892
  O         9.5879994919        2.4983290657        4.1557238404
 Na         2.5358405414        7.7292177670        0.8872016720
 Na         5.1522373578        5.5846352953        4.4891521532
 Na         5.1528399762        8.2474750773        6.3095403044
 Na         2.5352614841       10.3920530390        2.7076364571
 Al         0.0022536849        8.2917363489        2.6980457546
 Al         2.6192370788        7.6849507705        4.4987327446
 Al         2.6175648694       10.3477941828        6.2925070411
 Al         0.0005766871        5.6288900271        0.9042707189
  O         4.8590449168        9.9938431850        2.3454466137
  O         2.2420562212        5.9828419814        4.8513355071
  O         2.2406688166        8.6459233813        5.9380803037
  O         4.8576409636        7.3307512082        1.2587248083
  O         1.7370491093        8.1527970934        3.0410381029
  O         1.7327917485        5.4904820435        0.5509663596
  O         4.3497747402       10.4861959634        6.6458172197
  O         4.3540272428        7.8238931212        4.1557246256
 Na         7.7698144838        7.7292182873        0.8872018483
 Na        10.3862111080        5.5846355579        4.4891517845
 Na        10.3868131044        8.2474751726        6.3095399993
 Na         7.7692346644       10.3920532103        2.7076365295
 Al         5.2362281191        8.2917361325        2.6980461416
 Al         7.8532112255        7.6849516628        4.4987322351
 Al         7.8515386455       10.3477943129        6.2925075126
 Al         5.2345512542        5.6288895576        0.9042714959
  O        10.0930186908        9.9938439049        2.3454466012
  O         7.4760297746        5.9828429303        4.8513346044
  O         7.4746437054        8.6459240041        5.9380797140
  O        10.0916162452        7.3307510696        1.2587241283
  O         6.9710224809        8.1527969280        3.0410386449
  O         6.9667657907        5.4904823945        0.5509650791
  O         9.5837487086       10.4861964789        6.6458164835
  O         9.5880008398        7.8238934935        4.1557240772
 Na         2.5358511180        2.4036526600        8.0840012202
 Na         5.1522473351        0.2590753496       11.6859050417
 Na         5.1528262956        2.9219096702       13.5063399157
 Na         2.5352500555        5.0664915445        9.9043894463
 Al         0.0022487078        2.9661768503        9.8948089056
 Al         2.6192388617        2.3593912591       11.6954961753
 Al         2.6175643423        5.0222380501       13.4892705169
 Al         0.0005796218        0.3033330286        8.1010338983
  O         4.8590414966        4.6682865319        9.5422073436
  O         2.2420556632        0.6572826074       12.0480931647
  O         2.2406539123        3.3203766990       13.1348178955
  O         4.8576540160        2.0052028707        8.4554612228
  O         1.7370393201        2.8272345406       10.2378172167
  O         1.7327904060        0.1649320343        7.7477250817
  O         4.3497800858        5.1606447687       13.8425741461
  O         4.3540342010        2.4983303637       11.3525037265
 Na         7.7698253594        2.4036528464        8.0840012596
 Na        10.3862210717        0.2590758545       11.6859046952
 Na        10.3867998093        2.9219100039       13.5063396470
 Na         7.7692229819        5.0664918328        9.9043893955
 Al         5.2362217858        2.9661766450        9.8948088923
 Al         7.8532123169        2.3593919195       11.6954963552
 Al         7.8515392050        5.0222388012       13.4892698361
 Al         5.2345526623        0.3033325350        8.1010337524
  O        10.0930138626        4.6682870842        9.5422075591
  O         7.4760299512        0.6572829109       12.0480935570
  O         7.4746281925        3.3203781747       13.1348179791
  O        10.0916282728        2.0052039795        8.4554606724
  O         6.9710125139        2.8272342619       10.2378166128
  O         6.9667635237        0.1649326847        7.7477248720
  O         9.5837534058        5.1606457444       13.8425748061
  O         9.5880082562        2.4983309453       11.3525037686
 Na         2.5358517839        7.7292163616        8.0840016912
 Na         5.1522474087        5.5846392016       11.6859046016
 Na         5.1528272080        8.2474736796       13.5063405104
 Na         2.5352501779       10.3920558378        9.9043892708
 Al         0.0022499609        8.2917409824        9.8948088449
 Al         2.6192399818        7.6849553727       11.6954962742
 Al         2.6175646691       10.3478025657       13.4892704835
 Al         0.0005793868        5.6288972376        8.1010331487
  O         4.8590422140        9.9938505302        9.5422072307
  O         2.2420567891        5.9828463073       12.0480937214
  O         2.2406540613        8.6459401627       13.1348191081
  O         4.8576548548        7.3307668124        8.4554620965
  O         1.7370401503        8.1527988858       10.2378170257
  O         1.7327905921        5.4904958343        7.7477247747
  O         4.3497810161       10.4862083658       13.8425745288
  O         4.3540361943        7.8238946935       11.3525041956
 Na         7.7698260272        7.7292167247        8.0840016199
 Na        10.3862212908        5.5846393841       11.6859041373
 Na        10.3868003978        8.2474739299       13.5063400037
 Na         7.7692232424       10.3920561050        9.9043892395
 Al         5.2362230528        8.2917411612        9.8948089125
 Al         7.8532135438        7.6849550357       11.6954958623
 Al         7.8515390906       10.3478031370       13.4892703029
 Al         5.2345520948        5.6288964714        8.1010331452
  O        10.0930151831        9.9938511127        9.5422082034
  O         7.4760308168        5.9828470398       12.0480944820
  O         7.4746292052        8.6459409754       13.1348183350
  O        10.0916294913        7.3307678056        8.4554611673
  O         6.9710132750        8.1527987844       10.2378170387
  O         6.9667636473        5.4904967890        7.7477252573
  O         9.5837547504       10.4862095574       13.8425744955
  O         9.5880096897        7.8238949853       11.3525041904
